@<TRIPOS>MOLECULE
*****
   27    27     0     0     0
SMALL
USER_CHARGES

@<TRIPOS>ATOM
      1 C1          2.7486   -1.6866   -6.1812 C.ar      1 UNL1       -0.1500
      2 C2          2.0232   -0.5231   -5.9252 C.ar      1 UNL1       -0.1500
      3 C3          2.8321   -2.6843   -5.2099 C.ar      1 UNL1       -0.1500
      4 C4          1.3815   -0.3571   -4.6978 C.ar      1 UNL1       -0.1500
      5 C5          2.1905   -2.5184   -3.9826 C.ar      1 UNL1       -0.1500
      6 C6          1.4651   -1.3548   -3.7265 C.ar      1 UNL1       -0.1435
      7 C7          2.8639   -1.3418   -0.9883 C.3       1 UNL1        0.0000
      8 C8         -0.3533    0.5468   -0.2639 C.3       1 UNL1        0.5030
      9 C9          0.7743   -1.1765   -2.4040 C.3       1 UNL1        0.1435
     10 C10         1.6450   -0.4981   -1.3382 C.3       1 UNL1        0.5030
     11 N1          0.8490   -0.3075   -0.0910 N.4       1 UNL1       -0.9060
     12 H1          3.2470   -1.8163   -7.1374 H         1 UNL1        0.1500
     13 H2          1.9571    0.2534   -6.6817 H         1 UNL1        0.1500
     14 H3          3.3959   -3.5908   -5.4094 H         1 UNL1        0.1500
     15 H4          0.8188    0.5529   -4.5070 H         1 UNL1        0.1500
     16 H5          2.2612   -3.3009   -3.2318 H         1 UNL1        0.1500
     17 H6          2.5673   -2.3474   -0.6707 H         1 UNL1        0.0000
     18 H7          3.5409   -1.4440   -1.8435 H         1 UNL1        0.0000
     19 H8          3.4250   -0.8854   -0.1661 H         1 UNL1        0.0000
     20 H9         -0.9783    0.0916   -1.0343 H         1 UNL1        0.0000
     21 H10        -0.8761    0.5857    0.6936 H         1 UNL1        0.0000
     22 H11        -0.0166    1.5398   -0.5679 H         1 UNL1        0.0000
     23 H12         0.4712   -2.1681   -2.0403 H         1 UNL1        0.0000
     24 H13        -0.1607   -0.6159   -2.5387 H         1 UNL1        0.0000
     25 H14         1.9611    0.5024   -1.6530 H         1 UNL1        0.0000
     26 H15         1.4558    0.1005    0.6312 H         1 UNL1        0.4500
     27 H16         0.5640   -1.2283    0.2654 H         1 UNL1        0.4500
@<TRIPOS>BOND
     1    1    2 ar
     2    1    3 ar
     3    2    4 ar
     4    3    5 ar
     5    4    6 ar
     6    5    6 ar
     7    6    9 1
     8    7   10 1
     9    8   11 1
    10    9   10 1
    11   10   11 1
    12    1   12 1
    13    2   13 1
    14    3   14 1
    15    4   15 1
    16    5   16 1
    17    7   17 1
    18    7   18 1
    19    7   19 1
    20    8   20 1
    21    8   21 1
    22    8   22 1
    23    9   23 1
    24    9   24 1
    25   10   25 1
    26   11   26 1
    27   11   27 1
