@<TRIPOS>MOLECULE
*****
   35    36     0     0     0
SMALL
USER_CHARGES

@<TRIPOS>ATOM
      1 C1          3.3027    2.2223    2.2978 C.ar      1 UNL1       -0.1500
      2 C2          2.2945    1.5835    1.5723 C.ar      1 UNL1       -0.1500
      3 C3          3.6712    1.7714    3.5716 C.ar      1 UNL1       -0.1500
      4 C4          1.6190    0.4737    2.0907 C.ar      1 UNL1       -0.1500
      5 C5          3.0030    0.6578    4.1079 C.ar      1 UNL1        0.2272
      6 C6          2.0027    0.0422    3.3609 C.ar      1 UNL1       -0.1516
      7 C7          2.2945   -0.9557    5.3138 C.2       1 UNL1        0.0065
      8 C8          0.8144   -0.8358    8.2342 C.2       1 UNL1        0.7800
      9 C9         -0.3005    1.4752    9.4855 C.3       1 UNL1        0.0000
     10 C10        -2.1345   -0.0567   10.2594 C.3       1 UNL1        0.0000
     11 C11         0.2290   -0.4570   11.0089 C.3       1 UNL1        0.0000
     12 C12         2.0674   -1.9408    6.3876 C.3       1 UNL1        0.4801
     13 C13        -0.6608    0.0412    9.8710 C.3       1 UNL1        0.2800
     14 N1          3.1703    0.0241    5.3178 N.2       1 UNL1       -0.5653
     15 N2          1.5673   -0.9864    4.1565 N.pl3     1 UNL1        0.0332
     16 N3          0.8631   -1.6804    7.1469 N.am      1 UNL1       -0.7301
     17 O1          1.7595   -0.2050    8.6962 O.2       1 UNL1       -0.5700
     18 O2         -0.4581   -0.8016    8.7312 O.3       1 UNL1       -0.4300
     19 H1          3.8098    3.0824    1.8677 H         1 UNL1        0.1500
     20 H2          2.0281    1.9562    0.5862 H         1 UNL1        0.1500
     21 H3          4.4567    2.2744    4.1264 H         1 UNL1        0.1500
     22 H4          0.8370   -0.0240    1.5286 H         1 UNL1        0.1500
     23 H5          0.7565    1.5497    9.2061 H         1 UNL1        0.0000
     24 H6         -0.9078    1.8323    8.6474 H         1 UNL1        0.0000
     25 H7         -0.4451    2.1558   10.3324 H         1 UNL1        0.0000
     26 H8         -2.3974   -1.0840   10.5368 H         1 UNL1        0.0000
     27 H9         -2.7794    0.2094    9.4142 H         1 UNL1        0.0000
     28 H10        -2.3753    0.6018   11.1002 H         1 UNL1        0.0000
     29 H11        -0.0292   -1.4856   11.2856 H         1 UNL1        0.0000
     30 H12         1.2885   -0.4286   10.7344 H         1 UNL1        0.0000
     31 H13         0.0863    0.1506   11.9098 H         1 UNL1        0.0000
     32 H14         1.9773   -2.9688    5.9922 H         1 UNL1        0.0000
     33 H15         2.8986   -1.9676    7.1150 H         1 UNL1        0.0000
     34 H16         0.8385   -1.6486    3.9251 H         1 UNL1        0.2700
     35 H17         0.0078   -2.1453    6.8629 H         1 UNL1        0.3700
@<TRIPOS>BOND
     1    1    2 ar
     2    1    3 ar
     3    2    4 ar
     4    3    5 ar
     5    4    6 ar
     6    5    6 ar
     7    5   14 1
     8    6   15 1
     9    7   12 1
    10    7   14 2
    11    7   15 1
    12    8   16 am
    13    8   17 2
    14    8   18 1
    15    9   13 1
    16   10   13 1
    17   11   13 1
    18   12   16 1
    19   13   18 1
    20    1   19 1
    21    2   20 1
    22    3   21 1
    23    4   22 1
    24    9   23 1
    25    9   24 1
    26    9   25 1
    27   10   26 1
    28   10   27 1
    29   10   28 1
    30   11   29 1
    31   11   30 1
    32   11   31 1
    33   12   32 1
    34   12   33 1
    35   15   34 1
    36   16   35 1
