@<TRIPOS>MOLECULE
*****
   40    41     0     0     0
SMALL
USER_CHARGES

@<TRIPOS>ATOM
      1 C1          1.8851   -1.0363   -0.1124 C.ar      1 UNL1       -0.1500
      2 C2          0.7638   -0.4841    1.9551 C.ar      1 UNL1       -0.1500
      3 C3          0.8066   -0.4630    0.5610 C.ar      1 UNL1       -0.1435
      4 C4         -0.9696   -0.7544   -1.2039 C.ar      1 UNL1       -0.1435
      5 C5          2.9210   -1.6309    0.6081 C.ar      1 UNL1        0.0825
      6 C6          1.7997   -1.0786    2.6757 C.ar      1 UNL1        0.0825
      7 C7          2.8783   -1.6520    2.0022 C.ar      1 UNL1        0.0825
      8 C8         -1.8449   -1.7514   -0.8242 C.ar      1 UNL1        0.4100
      9 C9         -0.7357   -0.6499   -2.5599 C.ar      1 UNL1        0.3925
     10 C10        -2.1413   -2.3844   -2.9872 C.ar      1 UNL1        0.7200
     11 C11         3.9348   -2.1229   -1.4861 C.3       1 UNL1        0.2800
     12 C12         0.6087   -0.4847    4.6466 C.3       1 UNL1        0.2800
     13 C13         0.3114    0.3587   -4.4419 C.3       1 UNL1        0.2800
     14 C14        -0.3009    0.1730   -0.2092 C.3       1 UNL1        0.2870
     15 N1         -2.4509   -2.5876   -1.6925 N.ar      1 UNL1       -0.6200
     16 N2         -1.3065   -1.4513   -3.4831 N.ar      1 UNL1       -0.6200
     17 N3         -2.1253   -1.9090    0.5555 N.pl3     1 UNL1       -0.9000
     18 N4         -2.7576   -3.2415   -3.9249 N.pl3     1 UNL1       -0.9000
     19 O1          3.8908   -2.2331    2.7065 O.3       1 UNL1       -0.5325
     20 O2          3.9687   -2.1873   -0.0618 O.3       1 UNL1       -0.3625
     21 O3          1.7458   -1.0923    4.0369 O.3       1 UNL1       -0.3625
     22 O4          0.1192    0.3107   -3.0331 O.3       1 UNL1       -0.3625
     23 H1          1.9208   -1.0210   -1.1991 H         1 UNL1        0.1500
     24 H2         -0.0759   -0.0379    2.4825 H         1 UNL1        0.1500
     25 H3          4.8277   -2.6024   -1.8946 H         1 UNL1        0.0000
     26 H4          3.8917   -1.0780   -1.8036 H         1 UNL1        0.0000
     27 H5          3.0460   -2.6476   -1.8446 H         1 UNL1        0.0000
     28 H6          0.6908   -0.5646    5.7333 H         1 UNL1        0.0000
     29 H7         -0.3007   -0.9830    4.3015 H         1 UNL1        0.0000
     30 H8          0.5741    0.5698    4.3627 H         1 UNL1        0.0000
     31 H9          1.0102    1.1620   -4.6879 H         1 UNL1        0.0000
     32 H10        -0.6480    0.5319   -4.9358 H         1 UNL1        0.0000
     33 H11         0.7244   -0.5957   -4.7770 H         1 UNL1        0.0000
     34 H12        -1.0681    0.5741    0.4762 H         1 UNL1        0.0000
     35 H13         0.0638    1.0672   -0.7448 H         1 UNL1        0.0000
     36 H14        -1.6493   -1.3302    1.2129 H         1 UNL1        0.4000
     37 H15        -2.7192   -2.6561    0.8437 H         1 UNL1        0.4000
     38 H16        -3.3473   -3.9782   -3.5963 H         1 UNL1        0.4000
     39 H17        -2.5194   -3.1559   -4.8915 H         1 UNL1        0.4000
     40 H18         4.5613   -2.5835    2.1000 H         1 UNL1        0.4500
@<TRIPOS>BOND
     1    1    3 ar
     2    1    5 ar
     3    2    3 ar
     4    2    6 ar
     5    3   14 1
     6    4    8 ar
     7    4    9 ar
     8    4   14 1
     9    5    7 ar
    10    5   20 1
    11    6    7 ar
    12    6   21 1
    13    7   19 1
    14    8   15 ar
    15    8   17 1
    16    9   16 ar
    17    9   22 1
    18   10   15 ar
    19   10   16 ar
    20   10   18 1
    21   11   20 1
    22   12   21 1
    23   13   22 1
    24    1   23 1
    25    2   24 1
    26   11   25 1
    27   11   26 1
    28   11   27 1
    29   12   28 1
    30   12   29 1
    31   12   30 1
    32   13   31 1
    33   13   32 1
    34   13   33 1
    35   14   34 1
    36   14   35 1
    37   17   36 1
    38   17   37 1
    39   18   38 1
    40   18   39 1
    41   19   40 1
