@<TRIPOS>MOLECULE
*****
   26    28     0     0     0
SMALL
USER_CHARGES

@<TRIPOS>ATOM
      1 C1          7.0641    0.0982   -1.6325 C.ar      1 UNL1       -0.1500
      2 C2          6.2763   -0.9405   -2.1284 C.ar      1 UNL1       -0.1500
      3 C3          6.4646    1.2743   -1.1818 C.ar      1 UNL1       -0.1500
      4 C4          4.8890   -0.8032   -2.1736 C.ar      1 UNL1       -0.1500
      5 C5          5.0772    1.4116   -1.2270 C.ar      1 UNL1       -0.1500
      6 C6          0.6594    0.2905   -0.8108 C.ar      1 UNL1       -0.1500
      7 C7          0.1682    0.8407   -2.0012 C.ar      1 UNL1        0.0000
      8 C8          4.2894    0.3728   -1.7229 C.ar      1 UNL1        0.0000
      9 C9          2.0408    0.1283   -0.7048 C.ar      1 UNL1        0.1770
     10 C10         2.8474    0.5150   -1.7699 C.ar      1 UNL1        0.3100
     11 C11         1.0833    1.1833   -2.9845 C.ar      1 UNL1        0.1054
     12 C12        -1.0794    1.1845   -2.5587 C.2       1 UNL1        0.3718
     13 N1          2.4204    1.0506   -2.9391 N.ar      1 UNL1       -0.5670
     14 N2         -0.9733    1.7005   -3.7877 N.2       1 UNL1       -0.7068
     15 N3          0.3519    1.6873   -4.0192 N.pl3     1 UNL1        0.2996
     16 N4         -2.2417    0.9933   -1.8811 N.pl3     1 UNL1       -0.8830
     17 Cl1         2.6808   -0.5470    0.7490 Cl        1 UNL1       -0.1770
     18 H1          8.1442   -0.0095   -1.5959 H         1 UNL1        0.1500
     19 H2          6.7428   -1.8569   -2.4778 H         1 UNL1        0.1500
     20 H3          7.0773    2.0830   -0.7943 H         1 UNL1        0.1500
     21 H4          4.2885   -1.6222   -2.5628 H         1 UNL1        0.1500
     22 H5          4.6240    2.3339   -0.8716 H         1 UNL1        0.1500
     23 H6         -0.0121    0.0042   -0.0075 H         1 UNL1        0.1500
     24 H7          0.6888    2.0380   -4.9070 H         1 UNL1        0.2700
     25 H8         -2.2603    0.5481   -0.9569 H         1 UNL1        0.4000
     26 H9         -3.1531    1.1996   -2.3050 H         1 UNL1        0.4000
@<TRIPOS>BOND
     1    1    2 ar
     2    1    3 ar
     3    2    4 ar
     4    3    5 ar
     5    4    8 ar
     6    5    8 ar
     7    6    7 ar
     8    6    9 ar
     9    7   11 ar
    10    7   12 1
    11    8   10 1
    12    9   10 ar
    13    9   17 1
    14   10   13 ar
    15   11   13 ar
    16   11   15 1
    17   12   14 2
    18   12   16 1
    19   14   15 1
    20    1   18 1
    21    2   19 1
    22    3   20 1
    23    4   21 1
    24    5   22 1
    25    6   23 1
    26   15   24 1
    27   16   25 1
    28   16   26 1
