@<TRIPOS>MOLECULE
*****
   43    44     0     0     0
SMALL
USER_CHARGES

@<TRIPOS>ATOM
      1 C1         -2.1708   -2.8194    3.5883 C.ar      1 UNL1       -0.1500
      2 C2         -3.1349   -1.7275    1.6609 C.ar      1 UNL1       -0.1500
      3 C3         -3.3482   -6.0901    2.7962 C.ar      1 UNL1        0.1600
      4 C4         -3.1664   -2.7452    2.6143 C.ar      1 UNL1       -0.1435
      5 C5         -1.1436   -1.8759    3.6089 C.ar      1 UNL1       -0.1435
      6 C6         -2.1077   -0.7840    1.6815 C.ar      1 UNL1       -0.1435
      7 C7         -3.8626   -5.0884    1.9985 C.ar      1 UNL1       -0.1435
      8 C8         -1.1120   -0.8583    2.6555 C.ar      1 UNL1        0.0825
      9 C9         -3.9769   -5.3926    0.6574 C.ar      1 UNL1        0.4100
     10 C10        -3.1319   -7.4739    1.0057 C.ar      1 UNL1        0.7200
     11 C11        -0.0865   -1.9722    4.6594 C.3       1 UNL1        0.1435
     12 C12        -3.3022    0.1684   -0.3215 C.3       1 UNL1        0.0000
     13 C13        -0.7888    0.2411   -0.2044 C.3       1 UNL1        0.0000
     14 C14        -2.1590    1.7563    1.2127 C.3       1 UNL1        0.0000
     15 C15        -4.2650   -3.7535    2.5924 C.3       1 UNL1        0.2870
     16 C16        -2.0904    0.3299    0.6216 C.3       1 UNL1        0.1435
     17 N1         -2.9712   -7.2993    2.3313 N.ar      1 UNL1       -0.6200
     18 N2         -3.6197   -6.5797    0.1248 N.ar      1 UNL1       -0.6200
     19 N3         -4.4992   -4.4032   -0.2118 N.pl3     1 UNL1       -0.9000
     20 N4         -2.7477   -8.7283    0.4836 N.pl3     1 UNL1       -0.9000
     21 O1         -0.1071    0.0637    2.6753 O.3       1 UNL1       -0.5325
     22 H1         -2.1959   -3.6127    4.3318 H         1 UNL1        0.1500
     23 H2         -3.9103   -1.6719    0.9002 H         1 UNL1        0.1500
     24 H3         -3.2181   -5.9516    3.8649 H         1 UNL1        0.1500
     25 H4          0.7441   -2.5946    4.3068 H         1 UNL1        0.0000
     26 H5          0.3053   -0.9811    4.9196 H         1 UNL1        0.0000
     27 H6         -0.4844   -2.4107    5.5831 H         1 UNL1        0.0000
     28 H7         -3.3135    0.9519   -1.0882 H         1 UNL1        0.0000
     29 H8         -3.2938   -0.7930   -0.8467 H         1 UNL1        0.0000
     30 H9         -4.2454    0.2315    0.2340 H         1 UNL1        0.0000
     31 H10        -0.7327    1.0182   -0.9745 H         1 UNL1        0.0000
     32 H11         0.0940    0.3596    0.4349 H         1 UNL1        0.0000
     33 H12        -0.7074   -0.7288   -0.7091 H         1 UNL1        0.0000
     34 H13        -2.1439    2.5137    0.4196 H         1 UNL1        0.0000
     35 H14        -3.0795    1.9111    1.7876 H         1 UNL1        0.0000
     36 H15        -1.3066    1.9620    1.8705 H         1 UNL1        0.0000
     37 H16        -4.6576   -3.9200    3.6110 H         1 UNL1        0.0000
     38 H17        -5.1367   -3.3644    2.0371 H         1 UNL1        0.0000
     39 H18        -4.8112   -3.5389    0.1747 H         1 UNL1        0.4000
     40 H19        -4.6301   -4.6284   -1.1741 H         1 UNL1        0.4000
     41 H20        -2.3368   -9.4040    1.0942 H         1 UNL1        0.4000
     42 H21        -2.8062   -8.8831   -0.5018 H         1 UNL1        0.4000
     43 H22         0.5020   -0.1225    3.4062 H         1 UNL1        0.4500
@<TRIPOS>BOND
     1    1    4 ar
     2    1    5 ar
     3    2    4 ar
     4    2    6 ar
     5    3    7 ar
     6    3   17 ar
     7    4   15 1
     8    5    8 ar
     9    5   11 1
    10    6    8 ar
    11    6   16 1
    12    7    9 ar
    13    7   15 1
    14    8   21 1
    15    9   18 ar
    16    9   19 1
    17   10   17 ar
    18   10   18 ar
    19   10   20 1
    20   12   16 1
    21   13   16 1
    22   14   16 1
    23    1   22 1
    24    2   23 1
    25    3   24 1
    26   11   25 1
    27   11   26 1
    28   11   27 1
    29   12   28 1
    30   12   29 1
    31   12   30 1
    32   13   31 1
    33   13   32 1
    34   13   33 1
    35   14   34 1
    36   14   35 1
    37   14   36 1
    38   15   37 1
    39   15   38 1
    40   19   39 1
    41   19   40 1
    42   20   41 1
    43   20   42 1
    44   21   43 1
