@<TRIPOS>MOLECULE
*****
   37    39     0     0     0
SMALL
USER_CHARGES

@<TRIPOS>ATOM
      1 C1          5.0678    3.5882   -5.4503 C.ar      1 UNL1       -0.1500
      2 C2          4.3662    3.7615   -6.6500 C.ar      1 UNL1       -0.1500
      3 C3          2.3222    4.3299   -5.4525 C.ar      1 UNL1       -0.1500
      4 C4          4.3847    3.7894   -4.2390 C.ar      1 UNL1        0.2272
      5 C5          3.0410    4.1518   -4.2700 C.ar      1 UNL1       -0.1516
      6 C6          3.0178    4.1258   -6.6488 C.ar      1 UNL1        0.1110
      7 C7          3.7919    3.9771   -2.1963 C.2       1 UNL1        0.2705
      8 C8         -1.4457    1.2873   -2.3122 C.3       1 UNL1        0.0000
      9 C9          0.0420    0.9651   -2.4076 C.3       1 UNL1        0.0000
     10 C10        -1.7053    2.4799   -1.3976 C.3       1 UNL1        0.0000
     11 C11         0.8571    2.1861   -2.8379 C.3       1 UNL1        0.0000
     12 C12        -0.8970    3.7053   -1.8270 C.3       1 UNL1        0.0000
     13 C13         0.6065    3.4027   -1.9336 C.3       1 UNL1        0.2800
     14 C14         1.3682    4.6222   -2.4559 C.3       1 UNL1        0.2556
     15 N1          4.8336    3.6855   -2.9424 N.2       1 UNL1       -0.5653
     16 N2          2.6880    4.2650   -2.9497 N.pl3     1 UNL1        0.0476
     17 N3          3.7074    4.0195   -0.8454 N.pl3     1 UNL1       -0.8840
     18 O1          1.1139    3.0964   -0.6314 O.3       1 UNL1       -0.6800
     19 Br1         2.1115    4.3502   -8.2960 Br        1 UNL1       -0.1110
     20 H1          6.1152    3.3048   -5.4607 H         1 UNL1        0.1500
     21 H2          4.8960    3.6058   -7.5873 H         1 UNL1        0.1500
     22 H3          1.2743    4.6103   -5.4375 H         1 UNL1        0.1500
     23 H4         -1.8367    1.5040   -3.3140 H         1 UNL1        0.0000
     24 H5         -1.9898    0.4119   -1.9399 H         1 UNL1        0.0000
     25 H6          0.4015    0.6039   -1.4363 H         1 UNL1        0.0000
     26 H7          0.1961    0.1507   -3.1246 H         1 UNL1        0.0000
     27 H8         -2.7736    2.7246   -1.4069 H         1 UNL1        0.0000
     28 H9         -1.4512    2.2123   -0.3648 H         1 UNL1        0.0000
     29 H10         1.9196    1.9134   -2.8165 H         1 UNL1        0.0000
     30 H11         0.6047    2.4342   -3.8767 H         1 UNL1        0.0000
     31 H12        -1.2751    4.0609   -2.7940 H         1 UNL1        0.0000
     32 H13        -1.0710    4.5047   -1.0962 H         1 UNL1        0.0000
     33 H14         1.4855    5.3609   -1.6602 H         1 UNL1        0.0000
     34 H15         0.8112    5.0930   -3.2689 H         1 UNL1        0.0000
     35 H16         4.5008    3.7651   -0.2423 H         1 UNL1        0.4000
     36 H17         2.8211    4.2161   -0.3618 H         1 UNL1        0.4000
     37 H18         0.9436    3.8767   -0.0841 H         1 UNL1        0.4000
@<TRIPOS>BOND
     1    1    2 ar
     2    1    4 ar
     3    2    6 ar
     4    3    5 ar
     5    3    6 ar
     6    4    5 ar
     7    4   15 1
     8    5   16 1
     9    6   19 1
    10    7   15 2
    11    7   16 1
    12    7   17 1
    13    8    9 1
    14    8   10 1
    15    9   11 1
    16   10   12 1
    17   11   13 1
    18   12   13 1
    19   13   14 1
    20   13   18 1
    21   14   16 1
    22    1   20 1
    23    2   21 1
    24    3   22 1
    25    8   23 1
    26    8   24 1
    27    9   25 1
    28    9   26 1
    29   10   27 1
    30   10   28 1
    31   11   29 1
    32   11   30 1
    33   12   31 1
    34   12   32 1
    35   14   33 1
    36   14   34 1
    37   17   35 1
    38   17   36 1
    39   18   37 1
