@<TRIPOS>MOLECULE
*****
   46    49     0     0     0
SMALL
USER_CHARGES

@<TRIPOS>ATOM
      1 C1         -0.5116    0.7877   10.9649 C.ar      1 UNL1       -0.1500
      2 C2         -0.8899   -0.5100   11.3167 C.ar      1 UNL1       -0.1500
      3 C3          0.2489    1.0305    9.8141 C.ar      1 UNL1       -0.1500
      4 C4         -0.5236   -1.6101   10.5342 C.ar      1 UNL1       -0.1500
      5 C5          4.4253    3.1975    9.8887 C.ar      1 UNL1        0.1600
      6 C6          6.0488    4.3086    8.6292 C.ar      1 UNL1        0.1600
      7 C7          5.6523    3.1466    9.2592 C.ar      1 UNL1       -0.1435
      8 C8          0.6259   -0.0631    9.0164 C.ar      1 UNL1        0.2272
      9 C9          0.2337   -1.3446    9.3929 C.ar      1 UNL1       -0.1516
     10 C10         1.4184   -1.3692    7.5246 C.2       1 UNL1        0.0065
     11 C11         4.1354    5.3622    9.2586 C.ar      1 UNL1        0.7025
     12 C12         5.5564   -0.4133    9.3284 C.2       1 UNL1       -0.0500
     13 C13         5.8030    0.7267    8.6688 C.2       1 UNL1       -0.1238
     14 C14         5.3371    0.8079    7.2329 C.2       1 UNL1        0.7666
     15 C15         4.5084   -1.3478    7.4390 C.2       1 UNL1        0.6410
     16 C16         0.6208   -3.5977    8.3589 C.3       1 UNL1        0.2556
     17 C17         2.1156    6.4166    9.9401 C.3       1 UNL1        0.2800
     18 C18         6.5034    1.9047    9.2606 C.3       1 UNL1        0.2817
     19 C19         2.1069   -1.9279    6.3429 C.3       1 UNL1        0.4100
     20 N1          3.6378    4.2928    9.9083 N.ar      1 UNL1       -0.6200
     21 N2          5.3125    5.4390    8.6088 N.ar      1 UNL1       -0.6200
     22 N3          1.3607   -0.0982    7.8536 N.2       1 UNL1       -0.5653
     23 N4          4.6879   -0.2974    6.6941 N.2       1 UNL1       -0.6610
     24 N5          0.7544   -2.1597    8.4208 N.pl3     1 UNL1        0.0476
     25 N6          4.9145   -1.4609    8.7405 N.pl3     1 UNL1       -0.5500
     26 O1          5.5426    1.8350    6.5905 O.2       1 UNL1       -0.5700
     27 O2          3.3581    6.4970    9.2566 O.3       1 UNL1       -0.3625
     28 S1          3.6961   -2.7227    6.7558 S.3       1 UNL1       -0.3710
     29 H1         -0.8126    1.6226   11.5923 H         1 UNL1        0.1500
     30 H2         -1.4800   -0.6690   12.2160 H         1 UNL1        0.1500
     31 H3          0.5370    2.0427    9.5493 H         1 UNL1        0.1500
     32 H4         -0.8184   -2.6171   10.8076 H         1 UNL1        0.1500
     33 H5          4.0240    2.3363   10.4135 H         1 UNL1        0.1500
     34 H6          6.9974    4.3710    8.1051 H         1 UNL1        0.1500
     35 H7          5.8441   -0.5844   10.3579 H         1 UNL1        0.1500
     36 H8         -0.2831   -3.8282    7.7889 H         1 UNL1        0.0000
     37 H9          1.5007   -4.0244    7.8694 H         1 UNL1        0.0000
     38 H10         0.5464   -3.9978    9.3739 H         1 UNL1        0.0000
     39 H11         1.5958    7.3749    9.8665 H         1 UNL1        0.0000
     40 H12         2.2914    6.1649   10.9890 H         1 UNL1        0.0000
     41 H13         1.5054    5.6372    9.4778 H         1 UNL1        0.0000
     42 H14         7.4282    2.0944    8.7032 H         1 UNL1        0.0000
     43 H15         6.8136    1.6620   10.2832 H         1 UNL1        0.0000
     44 H16         1.4809   -2.6771    5.8251 H         1 UNL1        0.0000
     45 H17         2.3099   -1.1469    5.5880 H         1 UNL1        0.0000
     46 H18         4.7548   -2.2986    9.2875 H         1 UNL1        0.4000
@<TRIPOS>BOND
     1    1    2 ar
     2    1    3 ar
     3    2    4 ar
     4    3    8 ar
     5    4    9 ar
     6    5    7 ar
     7    5   20 ar
     8    6    7 ar
     9    6   21 ar
    10    7   18 1
    11    8    9 ar
    12    8   22 1
    13    9   24 1
    14   10   19 1
    15   10   22 2
    16   10   24 1
    17   11   20 ar
    18   11   21 ar
    19   11   27 1
    20   12   13 2
    21   12   25 1
    22   13   14 1
    23   13   18 1
    24   14   23 1
    25   14   26 2
    26   15   23 2
    27   15   25 1
    28   15   28 1
    29   16   24 1
    30   17   27 1
    31   19   28 1
    32    1   29 1
    33    2   30 1
    34    3   31 1
    35    4   32 1
    36    5   33 1
    37    6   34 1
    38   12   35 1
    39   16   36 1
    40   16   37 1
    41   16   38 1
    42   17   39 1
    43   17   40 1
    44   17   41 1
    45   18   42 1
    46   18   43 1
    47   19   44 1
    48   19   45 1
    49   25   46 1
