@<TRIPOS>MOLECULE
*****
   49    52     0     0     0
SMALL
USER_CHARGES

@<TRIPOS>ATOM
      1 C1          2.2040   -1.0857    8.9190 C.ar      1 UNL1       -0.1500
      2 C2          2.6562   -0.3103    9.9867 C.ar      1 UNL1       -0.1500
      3 C3          0.8380   -1.3127    8.7512 C.ar      1 UNL1       -0.1500
      4 C4          0.8360   -5.3520   15.7380 C.ar      1 UNL1       -0.1500
      5 C5          1.9368   -4.5350   15.4511 C.ar      1 UNL1       -0.1500
      6 C6          1.7424    0.2379   10.8867 C.ar      1 UNL1       -0.1500
      7 C7          1.0208   -3.9490   13.2710 C.ar      1 UNL1       -0.1500
      8 C8         -1.2568   -3.4588   11.0019 C.2       1 UNL1       -0.1500
      9 C9         -1.9380   -5.9445   13.6591 C.2       1 UNL1        0.0365
     10 C10        -0.0758   -0.7644    9.6512 C.ar      1 UNL1       -0.1435
     11 C11        -0.1828   -5.4661   14.7770 C.ar      1 UNL1        0.2272
     12 C12        -0.0661   -4.7682   13.5783 C.ar      1 UNL1       -0.1516
     13 C13        -1.8150   -3.3845    9.6931 C.2       1 UNL1        0.0620
     14 C14         2.0255   -3.8468   14.2388 C.ar      1 UNL1       -0.0090
     15 C15         0.3764    0.0109   10.7190 C.ar      1 UNL1        0.1770
     16 C16        -2.5208   -4.5214    9.3662 C.2       1 UNL1       -0.0450
     17 C17        -1.5576   -4.6498   11.6257 C.2       1 UNL1       -0.0360
     18 C18        -3.2223   -4.8334    8.1622 C.2       1 UNL1        0.7150
     19 C19        -2.1946   -0.0163    8.5096 C.3       1 UNL1        0.0000
     20 C20         2.9513   -1.2389   14.5484 C.3       1 UNL1        0.1052
     21 C21        -1.5455   -1.0357    9.4354 C.3       1 UNL1        0.4235
     22 N1         -1.3518   -6.1913   14.8091 N.2       1 UNL1       -0.5653
     23 N2         -1.2025   -5.0927   12.8828 N.pl3     1 UNL1        0.3792
     24 N3         -3.2324   -3.8881    7.1238 N.am      1 UNL1       -0.8000
     25 O1         -3.8440   -5.9151    8.0046 O.2       1 UNL1       -0.5700
     26 O2          4.5200   -3.3315   14.7349 O.2       1 UNL1       -0.6500
     27 O3          3.5820   -2.6999   12.4839 O.2       1 UNL1       -0.6500
     28 O4         -1.6839   -2.3403    8.8558 O.3       1 UNL1       -0.3420
     29 S1         -2.5089   -5.6719   10.6345 S.3       1 UNL1       -0.0800
     30 S2          3.4180   -2.8367   13.9238 S.o2      1 UNL1        1.2038
     31 Cl1        -0.7243    0.7057   11.8525 Cl        1 UNL1       -0.1770
     32 H1          2.9158   -1.5118    8.2178 H         1 UNL1        0.1500
     33 H2          3.7198   -0.1328   10.1163 H         1 UNL1        0.1500
     34 H3          0.4963   -1.9180    7.9156 H         1 UNL1        0.1500
     35 H4          0.7776   -5.8842   16.6821 H         1 UNL1        0.1500
     36 H5          2.7288   -4.4451   16.1910 H         1 UNL1        0.1500
     37 H6          2.1110    0.8407   11.7128 H         1 UNL1        0.1500
     38 H7          1.0843   -3.4170   12.3278 H         1 UNL1        0.1500
     39 H8         -0.6648   -2.6754   11.4597 H         1 UNL1        0.1500
     40 H9         -2.8879   -6.3538   13.3406 H         1 UNL1        0.1500
     41 H10        -1.6843    0.0278    7.5422 H         1 UNL1        0.0000
     42 H11        -2.1912    0.9879    8.9484 H         1 UNL1        0.0000
     43 H12        -3.2452   -0.2754    8.3385 H         1 UNL1        0.0000
     44 H13         3.7808   -0.5493   14.3843 H         1 UNL1        0.0000
     45 H14         2.0635   -0.9045   14.0094 H         1 UNL1        0.0000
     46 H15         2.7385   -1.3346   15.6141 H         1 UNL1        0.0000
     47 H16        -2.0884   -1.0443   10.3880 H         1 UNL1        0.0000
     48 H17        -2.7418   -3.0105    7.2572 H         1 UNL1        0.3700
     49 H18        -3.7128   -4.0509    6.2447 H         1 UNL1        0.3700
@<TRIPOS>BOND
     1    1    2 ar
     2    1    3 ar
     3    2    6 ar
     4    3   10 ar
     5    4    5 ar
     6    4   11 ar
     7    5   14 ar
     8    6   15 ar
     9    7   12 ar
    10    7   14 ar
    11    8   13 1
    12    8   17 2
    13    9   22 2
    14    9   23 1
    15   10   15 ar
    16   10   21 1
    17   11   12 ar
    18   11   22 1
    19   12   23 1
    20   13   16 2
    21   13   28 1
    22   14   30 1
    23   15   31 1
    24   16   18 1
    25   16   29 1
    26   17   23 1
    27   17   29 1
    28   18   24 am
    29   18   25 2
    30   19   21 1
    31   20   30 1
    32   21   28 1
    33   26   30 2
    34   27   30 2
    35    1   32 1
    36    2   33 1
    37    3   34 1
    38    4   35 1
    39    5   36 1
    40    6   37 1
    41    7   38 1
    42    8   39 1
    43    9   40 1
    44   19   41 1
    45   19   42 1
    46   19   43 1
    47   20   44 1
    48   20   45 1
    49   20   46 1
    50   21   47 1
    51   24   48 1
    52   24   49 1
