@<TRIPOS>MOLECULE
*****
   30    31     0     0     0
SMALL
USER_CHARGES

@<TRIPOS>ATOM
      1 C1          2.0640   -0.6096   -0.0196 C.ar      1 UNL1       -0.1500
      2 C2          0.8013   -0.4764    0.5577 C.ar      1 UNL1       -0.1500
      3 C3          6.9659   -3.5252    5.8926 C.2       1 UNL1       -0.1500
      4 C4          5.8439   -2.6994    5.5935 C.2       1 UNL1       -0.1500
      5 C5          1.6155   -1.5187    2.5795 C.ar      1 UNL1       -0.1500
      6 C6          3.1026   -1.1975    0.7027 C.ar      1 UNL1       -0.1435
      7 C7          2.8783   -1.6520    2.0022 C.ar      1 UNL1        0.1000
      8 C8          0.5770   -0.9309    1.8572 C.ar      1 UNL1        0.1770
      9 C9          6.9482   -4.7015    5.1761 C.2       1 UNL1       -0.0450
     10 C10         5.0115   -3.2760    4.6594 C.2       1 UNL1       -0.1400
     11 C11         7.8863   -5.7763    5.1954 C.2       1 UNL1        0.8050
     12 C12         4.4445   -1.3292    0.0588 C.3       1 UNL1        0.1435
     13 C13         3.7374   -2.7316    4.0811 C.3       1 UNL1        0.5491
     14 N1          3.9181   -2.2502    2.7477 N.pl3     1 UNL1       -0.8691
     15 O1          7.8248   -6.8293    4.5217 O.2       1 UNL1       -0.5700
     16 O2          8.9353   -5.5728    6.0562 O.3       1 UNL1       -0.6500
     17 S1          5.5832   -4.8069    4.1476 S.3       1 UNL1       -0.0800
     18 Cl1        -0.9812   -0.7659    2.5696 Cl        1 UNL1       -0.1770
     19 H1          2.2282   -0.2528   -1.0331 H         1 UNL1        0.1500
     20 H2          0.0017   -0.0159   -0.0167 H         1 UNL1        0.1500
     21 H3          7.7441   -3.2651    6.5990 H         1 UNL1        0.1500
     22 H4          5.6605   -1.7316    6.0429 H         1 UNL1        0.1500
     23 H5          1.4427   -1.8738    3.5933 H         1 UNL1        0.1500
     24 H6          5.0518   -0.4401    0.2628 H         1 UNL1        0.0000
     25 H7          4.9781   -2.2112    0.4333 H         1 UNL1        0.0000
     26 H8          4.3520   -1.4487   -1.0275 H         1 UNL1        0.0000
     27 H9          2.9622   -3.5053    4.0582 H         1 UNL1        0.0000
     28 H10         3.3532   -1.9040    4.6866 H         1 UNL1        0.0000
     29 H11         4.8103   -2.3266    2.2990 H         1 UNL1        0.4000
     30 H12         9.5866   -6.3061    6.0762 H         1 UNL1        0.5000
@<TRIPOS>BOND
     1    1    2 ar
     2    1    6 ar
     3    2    8 ar
     4    3    4 1
     5    3    9 2
     6    4   10 2
     7    5    7 ar
     8    5    8 ar
     9    6    7 ar
    10    6   12 1
    11    7   14 1
    12    8   18 1
    13    9   11 1
    14    9   17 1
    15   10   13 1
    16   10   17 1
    17   11   15 2
    18   11   16 1
    19   13   14 1
    20    1   19 1
    21    2   20 1
    22    3   21 1
    23    4   22 1
    24    5   23 1
    25   12   24 1
    26   12   25 1
    27   12   26 1
    28   13   27 1
    29   13   28 1
    30   14   29 1
    31   16   30 1
